Circuit: * C:\Users\me\Projects\epson_re\amp_sim_ltspice\amp_sim_ltspice.asc

Warning: Multiple definitions of model "2scr375p" Type: BJT
Warning: Multiple definitions of model "bc857b" Type: BJT
Warning: Multiple definitions of model "bc847c" Type: BJT
Warning: Multiple definitions of model "bc847b" Type: BJT
Vcal_reduced: Removing PWL point (1.748e-005,0.35)
Vcal: Removing PWL point (1.748e-005,0.75)
Vorig: Removing PWL point (1.734e-005,0.75)
WARNING: Node NC_01 is floating.
WARNING: Node NC_03 is floating.

WARNING: Less than two connections to node SIG.  This node is used by VORIG.
WARNING: Less than two connections to node NC_01.  This node is used by C3.
WARNING: Less than two connections to node NONE.  This node is used by Q1.
WARNING: Less than two connections to node ALSKJDF.  This node is used by Q3.
WARNING: Less than two connections to node NC_02.  This node is used by V4.
WARNING: Less than two connections to node NC_03.  This node is used by V4.
Direct Newton iteration failed to find .op point.  (Use ".option noopiter" to skip.)
Starting Gmin stepping
Gmin = 10
Gmin = 1.07374
Gmin = 0.115292
Gmin = 0.0123794
Gmin = 0.00132923
Gmin = 0.000142725
Gmin = 1.5325e-005
Gmin = 1.6455e-006
vernier = 0.5
vernier = 0.25
Gmin = 8.26349e-007
vernier = 0.333333
vernier = 0.444444
Gmin = 3.50743e-007
vernier = 0.592592
vernier = 0.790123
Gmin = 9.32058e-008
vernier = 1
vernier = 0.5
vernier = 0.25
vernier = 0.125
Gmin = 3.78451e-008
vernier = 0.166667
Gmin = 2.64573e-008
vernier = 0.222222
vernier = 0.296296
Gmin = 1.48193e-008
vernier = 0.148148
vernier = 0.074074
vernier = 0.037037
Gmin = 1.46573e-008
vernier = 0.0493827
vernier = 0.0658435
Gmin = 1.27561e-008
vernier = 0.0877914
vernier = 0.117055
Gmin = 1.02309e-008
vernier = 0.156073
Gmin = 7.24545e-009
vernier = 0.208098
vernier = 0.277464
Gmin = 4.08701e-009
vernier = 0.369952
vernier = 0.493269
vernier = 0.246634
Gmin = 2.1021e-009
vernier = 0.123317
vernier = 0.0616586
vernier = 0.0822114
Gmin = 1.9081e-009
vernier = 0.109615
Gmin = 1.50562e-009
vernier = 0.146154
vernier = 0.194871
Gmin = 1.02444e-009
vernier = 0.259828
vernier = 0.346438
Gmin = 5.60331e-010
vernier = 0.461917
Gmin = 2.14176e-010
vernier = 0.615889
vernier = 0.821185
Gmin = 4.6436e-011
vernier = 1
Gmin = 5.56164e-012
Gmin = 5.97177e-013
Gmin = 0
Gmin stepping succeeded in finding the operating point.


Date: Tue Aug 16 00:30:53 2022
Total elapsed time: 0.438 seconds.

tnom = 27
temp = 27
method = modified trap
totiter = 6066
traniter = 3731
tranpoints = 1401
accept = 1094
rejected = 307
matrix size = 121
fillins = 132
solver = Normal
Thread vector: 19.2/10.1[7] 5.6/3.1[7] 1.4/1.9[1] 0.2/1.8[1]  2592/500
Matrix Compiler1: 12.82 KB object code size  7.0/2.3/[1.0]
Matrix Compiler2: 12.58 KB object code size  1.3/1.9/[0.5]

